xflr5 v6.61

Plane Name
T1-10.0 m/s-Panel-Inviscid
QInf  =   10.000000 m/s
Alpha =   10.000000
Beta  =    0.000°
Phi   =    0.000°
Ctrl  =    0.000
CL    =    1.159304
Cy    =    0.000000
Cd    =    0.039699     ICd   =    0.039699     PCd   =    0.000000
Cl   = 6.49793e-16
Cm   =    -1.70601
ICn   =    0.000000     PCn   =    0.000000 
XCP   =    6.795685     YCP   =   -0.000000     ZCP   =    0.471372  
XNP   =    0.000000
Bending = 57017.032186

Main Wing
  y-span        Chord      Ai         Cl        PCd          ICd        CmGeom    CmAirf@chord/4    XTrtop    XTrBot      XCP       BM
  -22.1182     1.9189    -8.820    0.420518    0.000000    0.065251   -3.075181    0.009702     0.0000    0.0000    0.2245    0.0000
  -21.9671     1.9504    -6.688    0.689640    0.000000    0.080860   -4.637187   -0.025259     0.0000    0.0000    0.2803    0.5836
  -21.6659     2.0132    -5.242    0.917834    0.000000    0.084185   -5.762546   -0.033938     0.0000    0.0000    0.2813    7.5509
  -21.2168     2.1068    -4.087    1.081625    0.000000    0.077256   -6.405351   -0.051311     0.0000    0.0000    0.2919   37.6709
  -20.6227     2.2307    -3.192    1.187016    0.000000    0.066152   -6.517322   -0.065811     0.0000    0.0000    0.2998   122.2558
  -19.8877     2.3839    -2.532    1.247301    0.000000    0.055112   -6.236947   -0.075106     0.0000    0.0000    0.3045   308.8410
  -19.0169     2.5654    -2.090    1.276584    0.000000    0.046534   -5.725764   -0.080358     0.0000    0.0000    0.3072   661.6449
  -18.0162     2.7740    -1.823    1.285756    0.000000    0.040872   -5.106992   -0.083171     0.0000    0.0000    0.3090   1261.4073
  -16.8924     3.0083    -1.684    1.281900    0.000000    0.037618   -4.459193   -0.084619     0.0000    0.0000    0.3103   2204.7251
  -15.6533     3.2667    -1.632    1.269288    0.000000    0.036099   -3.828070   -0.085311     0.0000    0.0000    0.3115   3602.6671
  -14.3072     3.5473    -1.641    1.250380    0.000000    0.035748   -3.237921   -0.085584     0.0000    0.0000    0.3127   5578.4082
  -12.8633     3.8483    -1.691    1.226505    0.000000    0.036137   -2.700203   -0.085609     0.0000    0.0000    0.3141   8263.6827
  -11.3316     4.1676    -1.770    1.198281    0.000000    0.036946   -2.218755   -0.085489     0.0000    0.0000    0.3156   11793.9527
   -9.7225     4.5031    -1.868    1.165827    0.000000    0.037907   -1.793083   -0.085314     0.0000    0.0000    0.3175   16302.3017
   -8.0470     4.8524    -1.974    1.128884    0.000000    0.038771   -1.420638   -0.085192     0.0000    0.0000    0.3198   21912.1512
   -6.3165     5.2132    -2.074    1.086783    0.000000    0.039194   -1.097932   -0.085356     0.0000    0.0000    0.3230   28729.0151
   -4.5429     5.5829    -2.143    1.038447    0.000000    0.038633   -0.821712   -0.086402     0.0000    0.0000    0.3277   36831.5163
   -2.7382     5.9592    -2.118    0.982172    0.000000    0.035927   -0.590128   -0.090016     0.0000    0.0000    0.3364   46262.0103
   -0.9148     6.3393    -1.767    0.913332    0.000000    0.026959   -0.405656   -0.102584     0.0000    0.0000    0.3579   57017.0322
    0.9148     6.3393    -1.767    0.913332    0.000000    0.026959   -0.405656   -0.102584     0.0000    0.0000    0.3579   57017.0322
    2.7382     5.9592    -2.118    0.982172    0.000000    0.035927   -0.590128   -0.090016     0.0000    0.0000    0.3364   46262.0103
    4.5429     5.5829    -2.143    1.038447    0.000000    0.038633   -0.821712   -0.086402     0.0000    0.0000    0.3277   36831.5163
    6.3165     5.2132    -2.074    1.086783    0.000000    0.039194   -1.097932   -0.085356     0.0000    0.0000    0.3230   28729.0151
    8.0470     4.8524    -1.974    1.128884    0.000000    0.038771   -1.420638   -0.085192     0.0000    0.0000    0.3198   21912.1512
    9.7225     4.5031    -1.868    1.165827    0.000000    0.037907   -1.793083   -0.085314     0.0000    0.0000    0.3175   16302.3017
   11.3316     4.1676    -1.770    1.198281    0.000000    0.036946   -2.218755   -0.085489     0.0000    0.0000    0.3156   11793.9527
   12.8633     3.8483    -1.691    1.226505    0.000000    0.036137   -2.700203   -0.085609     0.0000    0.0000    0.3141   8263.6827
   14.3072     3.5473    -1.641    1.250380    0.000000    0.035748   -3.237921   -0.085584     0.0000    0.0000    0.3127   5578.4082
   15.6533     3.2667    -1.632    1.269288    0.000000    0.036099   -3.828070   -0.085311     0.0000    0.0000    0.3115   3602.6671
   16.8924     3.0083    -1.684    1.281900    0.000000    0.037618   -4.459193   -0.084619     0.0000    0.0000    0.3103   2204.7251
   18.0162     2.7740    -1.823    1.285756    0.000000    0.040872   -5.106992   -0.083171     0.0000    0.0000    0.3090   1261.4073
   19.0169     2.5654    -2.090    1.276584    0.000000    0.046534   -5.725764   -0.080358     0.0000    0.0000    0.3072   661.6449
   19.8877     2.3839    -2.532    1.247301    0.000000    0.055112   -6.236947   -0.075106     0.0000    0.0000    0.3045   308.8410
   20.6227     2.2307    -3.192    1.187016    0.000000    0.066152   -6.517322   -0.065811     0.0000    0.0000    0.2998   122.2558
   21.2168     2.1068    -4.087    1.081625    0.000000    0.077256   -6.405351   -0.051311     0.0000    0.0000    0.2919   37.6709
   21.6659     2.0132    -5.242    0.917834    0.000000    0.084185   -5.762546   -0.033938     0.0000    0.0000    0.2813    7.5509
   21.9671     1.9504    -6.688    0.689640    0.000000    0.080860   -4.637187   -0.025259     0.0000    0.0000    0.2803    0.5836
   22.1182     1.9189    -8.820    0.420518    0.000000    0.065251   -3.075181    0.009702     0.0000    0.0000    0.2245    0.0000


Main Wing Cp Coefficients
 Panel     CtrlPt.x        CtrlPt.y        CtrlPt.z       Nx      Ny       Nz        Area       Cp
Main WingCp Coefficients
Strip 1
  13       1.393e+01      -2.211e+01       7.144e-01          -0.004          -0.036          -0.999       2.110e-03         -0.9156
  14       1.387e+01      -2.211e+01       7.207e-01          -0.150          -0.085          -0.985       6.287e-03         -0.8969
  15       1.376e+01      -2.211e+01       7.276e-01          -0.011          -0.038          -0.999       9.944e-03         -0.8041
  16       1.361e+01      -2.211e+01       7.166e-01           0.133           0.015          -0.991       1.324e-02         -0.6078
  17       1.342e+01      -2.211e+01       6.845e-01           0.196           0.039          -0.980       1.585e-02         -0.4204
  18       1.321e+01      -2.211e+01       6.438e-01           0.176           0.031          -0.984       1.731e-02         -0.3127
  19       1.298e+01      -2.211e+01       6.131e-01           0.091          -0.006          -0.996       1.759e-02         -0.2520
  20       1.275e+01      -2.211e+01       6.012e-01           0.011          -0.042          -0.999       1.701e-02         -0.1919
  21       1.254e+01      -2.211e+01       6.041e-01          -0.041          -0.067          -0.997       1.553e-02         -0.1296
  22       1.235e+01      -2.211e+01       6.167e-01          -0.097          -0.095          -0.991       1.320e-02         -0.0462
  23       1.220e+01      -2.211e+01       6.371e-01          -0.180          -0.137          -0.974       1.017e-02          0.1089
  24       1.209e+01      -2.211e+01       6.665e-01          -0.380          -0.240          -0.893       6.895e-03          0.3819
  25       1.203e+01      -2.211e+01       7.086e-01          -0.788          -0.442          -0.429       4.759e-03          0.0846
  26       1.203e+01      -2.211e+01       7.581e-01          -0.788          -0.413           0.457       4.758e-03         -1.8864
  27       1.209e+01      -2.210e+01       8.000e-01          -0.379          -0.180           0.908       6.883e-03         -2.3937
  28       1.220e+01      -2.210e+01       8.292e-01          -0.178          -0.071           0.981       1.016e-02         -1.2591
  29       1.235e+01      -2.210e+01       8.494e-01          -0.094          -0.028           0.995       1.318e-02         -0.7962
  30       1.254e+01      -2.210e+01       8.621e-01          -0.043          -0.002           0.999       1.551e-02         -0.6240
  31       1.275e+01      -2.210e+01       8.667e-01          -0.001           0.018           1.000       1.698e-02         -0.5429
  32       1.298e+01      -2.210e+01       8.627e-01           0.036           0.035           0.999       1.750e-02         -0.5088
  33       1.321e+01      -2.210e+01       8.487e-01           0.087           0.057           0.995       1.705e-02         -0.5025
  34       1.342e+01      -2.210e+01       8.242e-01           0.142           0.078           0.987       1.567e-02         -0.5395
  35       1.361e+01      -2.210e+01       7.934e-01           0.182           0.094           0.979       1.335e-02         -0.6843
  36       1.376e+01      -2.211e+01       7.630e-01           0.213           0.105           0.971       1.020e-02         -0.9042
  37       1.387e+01      -2.211e+01       7.383e-01           0.241           0.114           0.964       6.419e-03         -1.0416
  38       1.393e+01      -2.211e+01       7.212e-01           0.438           0.178           0.881       2.380e-03         -0.8087
Strip 2
  39       1.387e+01      -2.196e+01       7.091e-01          -0.004          -0.036          -0.999       6.419e-03         -0.4193
  40       1.382e+01      -2.196e+01       7.154e-01          -0.150          -0.085          -0.985       1.913e-02         -0.3054
  41       1.371e+01      -2.196e+01       7.225e-01          -0.011          -0.038          -0.999       3.025e-02         -0.2163
  42       1.356e+01      -2.196e+01       7.113e-01           0.133           0.015          -0.991       4.026e-02         -0.1499
  43       1.336e+01      -2.196e+01       6.787e-01           0.196           0.039          -0.980       4.822e-02         -0.1282
  44       1.315e+01      -2.196e+01       6.374e-01           0.176           0.031          -0.984       5.265e-02         -0.1585
  45       1.291e+01      -2.196e+01       6.061e-01           0.091          -0.006          -0.996       5.352e-02         -0.1726
  46       1.268e+01      -2.196e+01       5.940e-01           0.011          -0.042          -0.999       5.174e-02         -0.1237
  47       1.246e+01      -2.196e+01       5.970e-01          -0.041          -0.067          -0.997       4.725e-02         -0.0430
  48       1.227e+01      -2.196e+01       6.097e-01          -0.097          -0.095          -0.991       4.015e-02          0.0755
  49       1.212e+01      -2.196e+01       6.306e-01          -0.180          -0.137          -0.974       3.094e-02          0.2735
  50       1.201e+01      -2.196e+01       6.604e-01          -0.380          -0.240          -0.893       2.098e-02          0.5434
  51       1.195e+01      -2.196e+01       7.032e-01          -0.787          -0.442          -0.429       1.448e-02         -0.1053
  52       1.195e+01      -2.195e+01       7.535e-01          -0.788          -0.413           0.457       1.447e-02         -2.6285
  53       1.201e+01      -2.195e+01       7.961e-01          -0.379          -0.180           0.908       2.094e-02         -3.1041
  54       1.212e+01      -2.195e+01       8.258e-01          -0.178          -0.071           0.981       3.090e-02         -1.6517
  55       1.227e+01      -2.195e+01       8.463e-01          -0.094          -0.028           0.995       4.009e-02         -1.0099
  56       1.246e+01      -2.195e+01       8.592e-01          -0.043          -0.002           0.999       4.719e-02         -0.7331
  57       1.268e+01      -2.195e+01       8.639e-01          -0.001           0.018           1.000       5.167e-02         -0.6006
  58       1.291e+01      -2.195e+01       8.598e-01           0.036           0.035           0.999       5.325e-02         -0.5445
  59       1.315e+01      -2.195e+01       8.456e-01           0.087           0.057           0.995       5.189e-02         -0.5186
  60       1.336e+01      -2.195e+01       8.207e-01           0.142           0.078           0.987       4.766e-02         -0.4959
  61       1.356e+01      -2.195e+01       7.894e-01           0.182           0.094           0.979       4.061e-02         -0.5084
  62       1.371e+01      -2.195e+01       7.584e-01           0.213           0.105           0.971       3.105e-02         -0.5325
  63       1.382e+01      -2.195e+01       7.334e-01           0.241           0.114           0.964       1.953e-02         -0.5479
  64       1.387e+01      -2.196e+01       7.160e-01           0.438           0.178           0.881       7.241e-03         -0.2931
Strip 3
  65       1.377e+01      -2.165e+01       6.985e-01          -0.004          -0.036          -0.999       1.099e-02         -0.0172
  66       1.372e+01      -2.165e+01       7.050e-01          -0.150          -0.085          -0.985       3.276e-02          0.1492
  67       1.360e+01      -2.165e+01       7.123e-01          -0.011          -0.038          -0.999       5.181e-02          0.2128
  68       1.344e+01      -2.165e+01       7.008e-01           0.133           0.015          -0.991       6.895e-02          0.1755
  69       1.325e+01      -2.166e+01       6.671e-01           0.196           0.039          -0.980       8.257e-02          0.0847
  70       1.302e+01      -2.166e+01       6.244e-01           0.176           0.031          -0.984       9.016e-02         -0.0208
  71       1.278e+01      -2.166e+01       5.922e-01           0.091          -0.006          -0.996       9.165e-02         -0.0650
  72       1.254e+01      -2.166e+01       5.797e-01           0.011          -0.042          -0.999       8.861e-02         -0.0094
  73       1.232e+01      -2.166e+01       5.827e-01          -0.041          -0.067          -0.997       8.091e-02          0.1005
  74       1.212e+01      -2.166e+01       5.959e-01          -0.097          -0.095          -0.991       6.876e-02          0.2572
  75       1.196e+01      -2.166e+01       6.174e-01          -0.180          -0.137          -0.974       5.300e-02          0.4775
  76       1.185e+01      -2.166e+01       6.482e-01          -0.380          -0.240          -0.893       3.593e-02          0.6901
  77       1.179e+01      -2.165e+01       6.924e-01          -0.787          -0.442          -0.430       2.480e-02         -0.2770
  78       1.179e+01      -2.165e+01       7.443e-01          -0.788          -0.413           0.457       2.478e-02         -3.2264
  79       1.185e+01      -2.165e+01       7.883e-01          -0.379          -0.180           0.908       3.584e-02         -3.6636
  80       1.196e+01      -2.165e+01       8.190e-01          -0.178          -0.071           0.981       5.290e-02         -1.9938
  81       1.212e+01      -2.165e+01       8.401e-01          -0.094          -0.028           0.995       6.864e-02         -1.2466
  82       1.232e+01      -2.165e+01       8.534e-01          -0.043          -0.002           0.999       8.081e-02         -0.8907
  83       1.254e+01      -2.165e+01       8.582e-01          -0.001           0.018           1.000       8.849e-02         -0.6912
  84       1.278e+01      -2.165e+01       8.541e-01           0.036           0.035           0.999       9.119e-02         -0.5784
  85       1.302e+01      -2.165e+01       8.394e-01           0.087           0.057           0.995       8.886e-02         -0.4877
  86       1.325e+01      -2.165e+01       8.137e-01           0.142           0.078           0.987       8.163e-02         -0.3719
  87       1.344e+01      -2.165e+01       7.814e-01           0.182           0.094           0.979       6.954e-02         -0.2614
  88       1.360e+01      -2.165e+01       7.494e-01           0.213           0.105           0.971       5.317e-02         -0.1645
  89       1.372e+01      -2.165e+01       7.236e-01           0.241           0.114           0.964       3.345e-02         -0.1112
  90       1.377e+01      -2.165e+01       7.056e-01           0.438           0.178           0.881       1.240e-02          0.1296
Strip 4
  91       1.362e+01      -2.121e+01       6.827e-01          -0.004          -0.036          -0.999       1.600e-02          0.0635
  92       1.356e+01      -2.121e+01       6.895e-01          -0.150          -0.085          -0.985       4.767e-02          0.2484
  93       1.344e+01      -2.121e+01       6.971e-01          -0.011          -0.038          -0.999       7.538e-02          0.3208
  94       1.328e+01      -2.121e+01       6.851e-01           0.133           0.015          -0.991       1.003e-01          0.2787
  95       1.307e+01      -2.121e+01       6.498e-01           0.196           0.039          -0.980       1.201e-01          0.1769
  96       1.283e+01      -2.121e+01       6.052e-01           0.176           0.031          -0.984       1.312e-01          0.0625
  97       1.258e+01      -2.121e+01       5.714e-01           0.091          -0.006          -0.996       1.334e-01          0.0188
  98       1.233e+01      -2.121e+01       5.584e-01           0.011          -0.042          -0.999       1.289e-01          0.0833
  99       1.210e+01      -2.121e+01       5.615e-01          -0.041          -0.067          -0.997       1.177e-01          0.2031
 100       1.189e+01      -2.121e+01       5.753e-01          -0.097          -0.094          -0.991       1.001e-01          0.3620
 101       1.172e+01      -2.121e+01       5.978e-01          -0.180          -0.137          -0.974       7.713e-02          0.5700
 102       1.161e+01      -2.121e+01       6.301e-01          -0.380          -0.240          -0.893       5.231e-02          0.7184
 103       1.155e+01      -2.121e+01       6.763e-01          -0.787          -0.442          -0.430       3.611e-02         -0.4764
 104       1.155e+01      -2.120e+01       7.306e-01          -0.788          -0.414           0.456       3.604e-02         -3.6747
 105       1.161e+01      -2.120e+01       7.767e-01          -0.379          -0.180           0.908       5.214e-02         -4.0488
 106       1.172e+01      -2.120e+01       8.088e-01          -0.178          -0.071           0.981       7.697e-02         -2.2170
 107       1.189e+01      -2.120e+01       8.309e-01          -0.094          -0.028           0.995       9.987e-02         -1.4116
 108       1.210e+01      -2.120e+01       8.448e-01          -0.043          -0.002           0.999       1.176e-01         -1.0262
 109       1.233e+01      -2.120e+01       8.499e-01          -0.001           0.018           1.000       1.288e-01         -0.7987
 110       1.258e+01      -2.120e+01       8.455e-01           0.036           0.035           0.999       1.327e-01         -0.6551
 111       1.283e+01      -2.120e+01       8.301e-01           0.087           0.057           0.995       1.293e-01         -0.5320
 112       1.307e+01      -2.120e+01       8.032e-01           0.142           0.078           0.987       1.188e-01         -0.3833
 113       1.328e+01      -2.120e+01       7.694e-01           0.182           0.094           0.979       1.012e-01         -0.2400
 114       1.344e+01      -2.120e+01       7.360e-01           0.213           0.105           0.971       7.738e-02         -0.1162
 115       1.356e+01      -2.120e+01       7.089e-01           0.241           0.114           0.964       4.868e-02         -0.0439
 116       1.362e+01      -2.121e+01       6.902e-01           0.438           0.178           0.881       1.805e-02          0.1908
Strip 5
 117       1.342e+01      -2.061e+01       6.617e-01          -0.004          -0.036          -0.999       2.158e-02          0.0895
 118       1.336e+01      -2.061e+01       6.690e-01          -0.150          -0.085          -0.985       6.431e-02          0.2838
 119       1.323e+01      -2.061e+01       6.770e-01          -0.011          -0.038          -0.999       1.017e-01          0.3630
 120       1.306e+01      -2.061e+01       6.643e-01           0.133           0.015          -0.991       1.353e-01          0.3240
 121       1.284e+01      -2.061e+01       6.270e-01           0.196           0.039          -0.980       1.620e-01          0.2241
 122       1.259e+01      -2.061e+01       5.797e-01           0.176           0.031          -0.984       1.769e-01          0.1130
 123       1.232e+01      -2.062e+01       5.440e-01           0.091          -0.006          -0.996       1.799e-01          0.0740
 124       1.206e+01      -2.062e+01       5.301e-01           0.011          -0.042          -0.999       1.739e-01          0.1416
 125       1.181e+01      -2.062e+01       5.335e-01          -0.041          -0.067          -0.997       1.588e-01          0.2608
 126       1.159e+01      -2.061e+01       5.481e-01          -0.097          -0.094          -0.991       1.350e-01          0.4153
 127       1.141e+01      -2.061e+01       5.719e-01          -0.180          -0.137          -0.974       1.041e-01          0.6136
 128       1.129e+01      -2.061e+01       6.061e-01          -0.380          -0.240          -0.893       7.059e-02          0.7191
 129       1.122e+01      -2.061e+01       6.550e-01          -0.787          -0.442          -0.431       4.872e-02         -0.6216
 130       1.122e+01      -2.061e+01       7.125e-01          -0.789          -0.414           0.455       4.859e-02         -3.9752
 131       1.129e+01      -2.061e+01       7.613e-01          -0.379          -0.180           0.908       7.029e-02         -4.2995
 132       1.141e+01      -2.061e+01       7.953e-01          -0.179          -0.071           0.981       1.038e-01         -2.3565
 133       1.159e+01      -2.061e+01       8.187e-01          -0.094          -0.028           0.995       1.347e-01         -1.5137
 134       1.181e+01      -2.061e+01       8.335e-01          -0.043          -0.002           0.999       1.586e-01         -1.1132
 135       1.206e+01      -2.061e+01       8.388e-01          -0.001           0.018           1.000       1.737e-01         -0.8753
 136       1.232e+01      -2.061e+01       8.341e-01           0.036           0.035           0.999       1.790e-01         -0.7204
 137       1.259e+01      -2.061e+01       8.179e-01           0.087           0.057           0.995       1.744e-01         -0.5828
 138       1.284e+01      -2.061e+01       7.894e-01           0.142           0.078           0.987       1.603e-01         -0.4166
 139       1.306e+01      -2.061e+01       7.536e-01           0.182           0.094           0.979       1.365e-01         -0.2556
 140       1.323e+01      -2.061e+01       7.182e-01           0.213           0.105           0.971       1.044e-01         -0.1177
 141       1.336e+01      -2.061e+01       6.896e-01           0.241           0.114           0.964       6.567e-02         -0.0345
 142       1.342e+01      -2.061e+01       6.697e-01           0.438           0.178           0.881       2.436e-02          0.1993
Strip 6
 143       1.318e+01      -1.988e+01       6.358e-01          -0.004          -0.036          -0.999       2.786e-02          0.1006
 144       1.311e+01      -1.988e+01       6.436e-01          -0.150          -0.085          -0.985       8.304e-02          0.3000
 145       1.297e+01      -1.988e+01       6.522e-01          -0.011          -0.038          -0.999       1.313e-01          0.3834
 146       1.279e+01      -1.988e+01       6.386e-01           0.133           0.015          -0.991       1.747e-01          0.3473
 147       1.255e+01      -1.988e+01       5.987e-01           0.196           0.039          -0.980       2.091e-01          0.2502
 148       1.228e+01      -1.988e+01       5.482e-01           0.176           0.031          -0.984       2.284e-01          0.1422
 149       1.200e+01      -1.988e+01       5.100e-01           0.091          -0.006          -0.996       2.322e-01          0.1058
 150       1.172e+01      -1.988e+01       4.952e-01           0.011          -0.042          -0.999       2.245e-01          0.1739
 151       1.145e+01      -1.988e+01       4.988e-01          -0.041          -0.067          -0.997       2.051e-01          0.2914
 152       1.122e+01      -1.988e+01       5.144e-01          -0.097          -0.094          -0.991       1.743e-01          0.4426
 153       1.103e+01      -1.988e+01       5.398e-01          -0.180          -0.137          -0.974       1.344e-01          0.6351
 154       1.089e+01      -1.988e+01       5.764e-01          -0.380          -0.240          -0.893       9.118e-02          0.7160
 155       1.083e+01      -1.988e+01       6.286e-01          -0.786          -0.442          -0.432       6.294e-02         -0.7049
 156       1.083e+01      -1.988e+01       6.901e-01          -0.789          -0.414           0.454       6.271e-02         -4.1467
 157       1.089e+01      -1.987e+01       7.423e-01          -0.379          -0.180           0.908       9.072e-02         -4.4425
 158       1.103e+01      -1.987e+01       7.786e-01          -0.179          -0.071           0.981       1.340e-01         -2.4347
 159       1.122e+01      -1.987e+01       8.036e-01          -0.094          -0.028           0.995       1.739e-01         -1.5705
 160       1.145e+01      -1.987e+01       8.194e-01          -0.043          -0.002           0.999       2.048e-01         -1.1618
 161       1.172e+01      -1.987e+01       8.251e-01          -0.001           0.018           1.000       2.243e-01         -0.9193
 162       1.200e+01      -1.987e+01       8.201e-01           0.036           0.035           0.999       2.311e-01         -0.7599
 163       1.228e+01      -1.987e+01       8.027e-01           0.087           0.057           0.995       2.252e-01         -0.6161
 164       1.255e+01      -1.987e+01       7.723e-01           0.142           0.078           0.987       2.069e-01         -0.4411
 165       1.279e+01      -1.988e+01       7.341e-01           0.182           0.094           0.979       1.763e-01         -0.2707
 166       1.297e+01      -1.988e+01       6.962e-01           0.213           0.105           0.971       1.348e-01         -0.1251
 167       1.311e+01      -1.988e+01       6.656e-01           0.241           0.114           0.964       8.481e-02         -0.0354
 168       1.318e+01      -1.988e+01       6.443e-01           0.437           0.178           0.882       3.146e-02          0.1987
Strip 7
 169       1.288e+01      -1.901e+01       6.052e-01          -0.004          -0.036          -0.999       3.494e-02          0.1061
 170       1.281e+01      -1.901e+01       6.136e-01          -0.150          -0.085          -0.985       1.042e-01          0.3084
 171       1.267e+01      -1.901e+01       6.228e-01          -0.011          -0.038          -0.999       1.647e-01          0.3940
 172       1.246e+01      -1.901e+01       6.082e-01           0.133           0.015          -0.991       2.191e-01          0.3596
 173       1.221e+01      -1.901e+01       5.652e-01           0.196           0.039          -0.980       2.623e-01          0.2641
 174       1.192e+01      -1.901e+01       5.108e-01           0.176           0.031          -0.984       2.864e-01          0.1576
 175       1.162e+01      -1.901e+01       4.697e-01           0.091          -0.006          -0.996       2.912e-01          0.1222
 176       1.131e+01      -1.901e+01       4.538e-01           0.011          -0.042          -0.999       2.816e-01          0.1900
 177       1.103e+01      -1.901e+01       4.577e-01          -0.041          -0.067          -0.997       2.572e-01          0.3062
 178       1.077e+01      -1.901e+01       4.745e-01          -0.097          -0.094          -0.991       2.187e-01          0.4553
 179       1.057e+01      -1.901e+01       5.019e-01          -0.180          -0.137          -0.974       1.686e-01          0.6447
 180       1.043e+01      -1.901e+01       5.412e-01          -0.380          -0.240          -0.894       1.144e-01          0.7155
 181       1.035e+01      -1.901e+01       5.974e-01          -0.786          -0.442          -0.433       7.898e-02         -0.7350
 182       1.035e+01      -1.901e+01       6.636e-01          -0.789          -0.414           0.453       7.861e-02         -4.2155
 183       1.043e+01      -1.900e+01       7.197e-01          -0.380          -0.180           0.907       1.137e-01         -4.5028
 184       1.057e+01      -1.900e+01       7.588e-01          -0.179          -0.071           0.981       1.680e-01         -2.4686
 185       1.077e+01      -1.900e+01       7.858e-01          -0.094          -0.028           0.995       2.181e-01         -1.5962
 186       1.103e+01      -1.900e+01       8.027e-01          -0.043          -0.002           0.999       2.568e-01         -1.1846
 187       1.131e+01      -1.900e+01       8.089e-01          -0.001           0.018           1.000       2.813e-01         -0.9408
 188       1.162e+01      -1.900e+01       8.035e-01           0.036           0.035           0.999       2.899e-01         -0.7799
 189       1.192e+01      -1.900e+01       7.848e-01           0.087           0.057           0.995       2.825e-01         -0.6335
 190       1.221e+01      -1.900e+01       7.520e-01           0.142           0.078           0.987       2.596e-01         -0.4543
 191       1.246e+01      -1.900e+01       7.109e-01           0.182           0.094           0.979       2.212e-01         -0.2795
 192       1.267e+01      -1.901e+01       6.701e-01           0.213           0.105           0.971       1.691e-01         -0.1302
 193       1.281e+01      -1.901e+01       6.372e-01           0.241           0.114           0.964       1.064e-01         -0.0369
 194       1.288e+01      -1.901e+01       6.143e-01           0.437           0.178           0.882       3.947e-02          0.1974
Strip 8
 195       1.255e+01      -1.801e+01       5.699e-01          -0.004          -0.036          -0.999       4.289e-02          0.1090
 196       1.247e+01      -1.801e+01       5.790e-01          -0.149          -0.085          -0.985       1.279e-01          0.3127
 197       1.231e+01      -1.801e+01       5.890e-01          -0.011          -0.038          -0.999       2.021e-01          0.3996
 198       1.209e+01      -1.801e+01       5.732e-01           0.133           0.015          -0.991       2.688e-01          0.3660
 199       1.182e+01      -1.801e+01       5.267e-01           0.196           0.039          -0.980       3.219e-01          0.2711
 200       1.151e+01      -1.801e+01       4.679e-01           0.176           0.031          -0.984       3.515e-01          0.1648
 201       1.118e+01      -1.801e+01       4.235e-01           0.091          -0.006          -0.996       3.574e-01          0.1293
 202       1.085e+01      -1.801e+01       4.063e-01           0.011          -0.042          -0.999       3.457e-01          0.1964
 203       1.054e+01      -1.801e+01       4.104e-01          -0.041          -0.067          -0.997       3.158e-01          0.3114
 204       1.027e+01      -1.801e+01       4.286e-01          -0.096          -0.094          -0.991       2.684e-01          0.4591
 205       1.005e+01      -1.801e+01       4.582e-01          -0.179          -0.137          -0.974       2.070e-01          0.6472
 206       9.891e+00      -1.801e+01       5.007e-01          -0.379          -0.240          -0.894       1.405e-01          0.7183
 207       9.811e+00      -1.801e+01       5.615e-01          -0.785          -0.441          -0.434       9.700e-02         -0.7249
 208       9.811e+00      -1.801e+01       6.331e-01          -0.790          -0.414           0.452       9.645e-02         -4.2081
 209       9.891e+00      -1.800e+01       6.938e-01          -0.380          -0.180           0.907       1.395e-01         -4.5028
 210       1.005e+01      -1.800e+01       7.360e-01          -0.179          -0.071           0.981       2.062e-01         -2.4713
 211       1.027e+01      -1.800e+01       7.652e-01          -0.094          -0.028           0.995       2.677e-01         -1.6010
 212       1.054e+01      -1.800e+01       7.836e-01          -0.043          -0.002           0.999       3.152e-01         -1.1908
 213       1.085e+01      -1.800e+01       7.902e-01          -0.001           0.018           1.000       3.453e-01         -0.9479
 214       1.118e+01      -1.800e+01       7.844e-01           0.036           0.035           0.999       3.559e-01         -0.7873
 215       1.151e+01      -1.800e+01       7.642e-01           0.087           0.057           0.995       3.469e-01         -0.6404
 216       1.182e+01      -1.800e+01       7.287e-01           0.142           0.078           0.987       3.187e-01         -0.4599
 217       1.209e+01      -1.800e+01       6.842e-01           0.182           0.094           0.979       2.716e-01         -0.2833
 218       1.231e+01      -1.801e+01       6.402e-01           0.213           0.105           0.971       2.076e-01         -0.1324
 219       1.247e+01      -1.801e+01       6.046e-01           0.241           0.114           0.964       1.306e-01         -0.0376
 220       1.255e+01      -1.801e+01       5.798e-01           0.437           0.178           0.882       4.847e-02          0.1965
Strip 9
 221       1.217e+01      -1.688e+01       5.304e-01          -0.004          -0.036          -0.999       5.174e-02          0.1104
 222       1.208e+01      -1.688e+01       5.402e-01          -0.149          -0.085          -0.985       1.543e-01          0.3150
 223       1.191e+01      -1.688e+01       5.510e-01          -0.011          -0.038          -0.999       2.438e-01          0.4025
 224       1.167e+01      -1.688e+01       5.339e-01           0.133           0.015          -0.991       3.242e-01          0.3692
 225       1.138e+01      -1.688e+01       4.834e-01           0.196           0.039          -0.980       3.881e-01          0.2741
 226       1.104e+01      -1.689e+01       4.197e-01           0.176           0.031          -0.984       4.239e-01          0.1672
 227       1.068e+01      -1.689e+01       3.715e-01           0.091          -0.006          -0.996       4.311e-01          0.1307
 228       1.033e+01      -1.689e+01       3.528e-01           0.011          -0.042          -0.999       4.170e-01          0.1968
 229       9.991e+00      -1.689e+01       3.574e-01          -0.041          -0.067          -0.997       3.809e-01          0.3107
 230       9.695e+00      -1.689e+01       3.771e-01          -0.096          -0.094          -0.991       3.238e-01          0.4572
 231       9.456e+00      -1.689e+01       4.092e-01          -0.179          -0.137          -0.974       2.497e-01          0.6450
 232       9.289e+00      -1.688e+01       4.553e-01          -0.379          -0.239          -0.894       1.696e-01          0.7239
 233       9.202e+00      -1.688e+01       5.213e-01          -0.785          -0.441          -0.435       1.171e-01         -0.6856
 234       9.202e+00      -1.688e+01       5.989e-01          -0.790          -0.415           0.451       1.163e-01         -4.1452
 235       9.289e+00      -1.688e+01       6.647e-01          -0.380          -0.180           0.907       1.682e-01         -4.4593
 236       9.456e+00      -1.688e+01       7.105e-01          -0.179          -0.071           0.981       2.486e-01         -2.4521
 237       9.695e+00      -1.688e+01       7.422e-01          -0.094          -0.028           0.995       3.228e-01         -1.5915
 238       9.991e+00      -1.688e+01       7.620e-01          -0.043          -0.002           0.999       3.802e-01         -1.1861
 239       1.033e+01      -1.688e+01       7.692e-01          -0.001           0.018           1.000       4.164e-01         -0.9459
 240       1.068e+01      -1.688e+01       7.630e-01           0.036           0.035           0.999       4.293e-01         -0.7870
 241       1.104e+01      -1.688e+01       7.410e-01           0.087           0.057           0.995       4.184e-01         -0.6408
 242       1.138e+01      -1.688e+01       7.026e-01           0.142           0.078           0.987       3.845e-01         -0.4605
 243       1.167e+01      -1.688e+01       6.543e-01           0.182           0.094           0.979       3.276e-01         -0.2839
 244       1.191e+01      -1.688e+01       6.065e-01           0.213           0.105           0.971       2.505e-01         -0.1328
 245       1.208e+01      -1.688e+01       5.679e-01           0.241           0.114           0.964       1.576e-01         -0.0376
 246       1.217e+01      -1.688e+01       5.411e-01           0.437           0.178           0.882       5.848e-02          0.1960
Strip 10
 247       1.175e+01      -1.565e+01       4.867e-01          -0.004          -0.036          -0.999       6.146e-02          0.1110
 248       1.166e+01      -1.564e+01       4.974e-01          -0.149          -0.085          -0.985       1.833e-01          0.3162
 249       1.147e+01      -1.564e+01       5.092e-01          -0.011          -0.038          -0.999       2.897e-01          0.4040
 250       1.122e+01      -1.565e+01       4.905e-01           0.133           0.015          -0.991       3.852e-01          0.3706
 251       1.089e+01      -1.565e+01       4.358e-01           0.196           0.039          -0.980       4.610e-01          0.2749
 252       1.053e+01      -1.565e+01       3.665e-01           0.176           0.031          -0.984       5.035e-01          0.1667
 253       1.014e+01      -1.565e+01       3.142e-01           0.091          -0.006          -0.996       5.121e-01          0.1287
 254       9.752e+00      -1.565e+01       2.940e-01           0.011          -0.042          -0.999       4.954e-01          0.1934
 255       9.387e+00      -1.565e+01       2.988e-01          -0.041          -0.067          -0.997       4.526e-01          0.3060
 256       9.065e+00      -1.565e+01       3.202e-01          -0.096          -0.094          -0.991       3.847e-01          0.4513
 257       8.806e+00      -1.565e+01       3.551e-01          -0.179          -0.137          -0.974       2.968e-01          0.6393
 258       8.624e+00      -1.565e+01       4.052e-01          -0.379          -0.239          -0.894       2.015e-01          0.7311
 259       8.531e+00      -1.565e+01       4.768e-01          -0.785          -0.441          -0.436       1.391e-01         -0.6257
 260       8.531e+00      -1.564e+01       5.611e-01          -0.790          -0.415           0.451       1.381e-01         -4.0420
 261       8.624e+00      -1.564e+01       6.326e-01          -0.380          -0.180           0.907       1.998e-01         -4.3840
 262       8.806e+00      -1.564e+01       6.824e-01          -0.179          -0.071           0.981       2.953e-01         -2.4174
 263       9.065e+00      -1.564e+01       7.167e-01          -0.095          -0.028           0.995       3.835e-01         -1.5720
 264       9.387e+00      -1.564e+01       7.383e-01          -0.043          -0.002           0.999       4.517e-01         -1.1738
 265       9.752e+00      -1.564e+01       7.461e-01          -0.001           0.018           1.000       4.947e-01         -0.9378
 266       1.014e+01      -1.564e+01       7.393e-01           0.036           0.035           0.999       5.100e-01         -0.7815
 267       1.053e+01      -1.564e+01       7.155e-01           0.087           0.057           0.995       4.971e-01         -0.6371
 268       1.089e+01      -1.564e+01       6.737e-01           0.142           0.078           0.987       4.568e-01         -0.4581
 269       1.122e+01      -1.564e+01       6.213e-01           0.182           0.094           0.979       3.893e-01         -0.2824
 270       1.147e+01      -1.564e+01       5.695e-01           0.213           0.105           0.971       2.977e-01         -0.1320
 271       1.166e+01      -1.564e+01       5.275e-01           0.241           0.114           0.964       1.873e-01         -0.0371
 272       1.175e+01      -1.564e+01       4.984e-01           0.437           0.178           0.882       6.950e-02          0.1956
Strip 11
 273       1.130e+01      -1.430e+01       4.393e-01          -0.004          -0.036          -0.999       7.203e-02          0.1111
 274       1.120e+01      -1.430e+01       4.509e-01          -0.149          -0.085          -0.985       2.148e-01          0.3167
 275       1.100e+01      -1.430e+01       4.637e-01          -0.011          -0.038          -0.999       3.395e-01          0.4046
 276       1.072e+01      -1.430e+01       4.435e-01           0.133           0.015          -0.991       4.513e-01          0.3709
 277       1.037e+01      -1.430e+01       3.840e-01           0.196           0.039          -0.980       5.402e-01          0.2742
 278       9.971e+00      -1.430e+01       3.088e-01           0.176           0.031          -0.984       5.899e-01          0.1642
 279       9.549e+00      -1.430e+01       2.520e-01           0.091          -0.006          -0.996       6.001e-01          0.1242
 280       9.128e+00      -1.430e+01       2.300e-01           0.011          -0.042          -0.999       5.805e-01          0.1873
 281       8.731e+00      -1.430e+01       2.353e-01          -0.041          -0.067          -0.997       5.304e-01          0.2985
 282       8.382e+00      -1.430e+01       2.585e-01          -0.096          -0.094          -0.991       4.509e-01          0.4426
 283       8.100e+00      -1.430e+01       2.964e-01          -0.179          -0.137          -0.974       3.478e-01          0.6310
 284       7.903e+00      -1.430e+01       3.508e-01          -0.379          -0.239          -0.894       2.363e-01          0.7391
 285       7.801e+00      -1.430e+01       4.286e-01          -0.784          -0.441          -0.436       1.631e-01         -0.5509
 286       7.801e+00      -1.430e+01       5.201e-01          -0.791          -0.415           0.450       1.618e-01         -3.9083
 287       7.903e+00      -1.430e+01       5.978e-01          -0.380          -0.180           0.907       2.340e-01         -4.2842
 288       8.100e+00      -1.430e+01       6.518e-01          -0.179          -0.072           0.981       3.460e-01         -2.3703
 289       8.382e+00      -1.430e+01       6.891e-01          -0.095          -0.028           0.995       4.493e-01         -1.5451
 290       8.731e+00      -1.430e+01       7.125e-01          -0.043          -0.002           0.999       5.293e-01         -1.1560
 291       9.128e+00      -1.430e+01       7.210e-01          -0.001           0.018           1.000       5.798e-01         -0.9253
 292       9.549e+00      -1.430e+01       7.136e-01           0.036           0.035           0.999       5.977e-01         -0.7725
 293       9.971e+00      -1.430e+01       6.878e-01           0.087           0.057           0.995       5.826e-01         -0.6308
 294       1.037e+01      -1.430e+01       6.424e-01           0.142           0.078           0.987       5.354e-01         -0.4538
 295       1.072e+01      -1.430e+01       5.855e-01           0.182           0.094           0.979       4.562e-01         -0.2796
 296       1.100e+01      -1.430e+01       5.292e-01           0.213           0.105           0.971       3.489e-01         -0.1303
 297       1.120e+01      -1.430e+01       4.836e-01           0.241           0.114           0.964       2.195e-01         -0.0364
 298       1.130e+01      -1.430e+01       4.520e-01           0.437           0.177           0.882       8.146e-02          0.1953
Strip 12
 299       1.081e+01      -1.286e+01       3.885e-01          -0.004          -0.036          -0.999       8.334e-02          0.1109
 300       1.070e+01      -1.286e+01       4.010e-01          -0.149          -0.085          -0.985       2.486e-01          0.3168
 301       1.049e+01      -1.286e+01       4.149e-01          -0.011          -0.038          -0.999       3.928e-01          0.4048
 302       1.018e+01      -1.286e+01       3.930e-01           0.133           0.015          -0.991       5.221e-01          0.3706
 303       9.803e+00      -1.286e+01       3.284e-01           0.196           0.039          -0.980       6.249e-01          0.2727
 304       9.372e+00      -1.286e+01       2.469e-01           0.176           0.031          -0.984       6.824e-01          0.1604
 305       8.915e+00      -1.286e+01       1.852e-01           0.091          -0.006          -0.996       6.942e-01          0.1179
 306       8.458e+00      -1.286e+01       1.613e-01           0.011          -0.042          -0.999       6.716e-01          0.1791
 307       8.027e+00      -1.286e+01       1.671e-01          -0.041          -0.067          -0.997       6.137e-01          0.2887
 308       7.648e+00      -1.286e+01       1.923e-01          -0.096          -0.094          -0.991       5.218e-01          0.4313
 309       7.343e+00      -1.286e+01       2.334e-01          -0.179          -0.137          -0.974       4.025e-01          0.6203
 310       7.129e+00      -1.286e+01       2.924e-01          -0.379          -0.239          -0.894       2.735e-01          0.7470
 311       7.019e+00      -1.286e+01       3.768e-01          -0.784          -0.441          -0.437       1.888e-01         -0.4650
 312       7.019e+00      -1.286e+01       4.762e-01          -0.791          -0.415           0.449       1.871e-01         -3.7495
 313       7.129e+00      -1.285e+01       5.604e-01          -0.380          -0.181           0.907       2.707e-01         -4.1639
 314       7.343e+00      -1.285e+01       6.190e-01          -0.179          -0.072           0.981       4.003e-01         -2.3137
 315       7.648e+00      -1.285e+01       6.595e-01          -0.095          -0.028           0.995       5.198e-01         -1.5122
 316       8.027e+00      -1.285e+01       6.849e-01          -0.043          -0.002           0.999       6.124e-01         -1.1339
 317       8.458e+00      -1.285e+01       6.941e-01          -0.001           0.018           1.000       6.708e-01         -0.9096
 318       8.915e+00      -1.285e+01       6.861e-01           0.036           0.035           0.999       6.915e-01         -0.7610
 319       9.372e+00      -1.285e+01       6.580e-01           0.087           0.057           0.995       6.742e-01         -0.6224
 320       9.803e+00      -1.285e+01       6.088e-01           0.142           0.078           0.987       6.195e-01         -0.4479
 321       1.018e+01      -1.286e+01       5.471e-01           0.182           0.094           0.979       5.280e-01         -0.2759
 322       1.049e+01      -1.286e+01       4.859e-01           0.213           0.105           0.971       4.037e-01         -0.1282
 323       1.070e+01      -1.286e+01       4.365e-01           0.241           0.114           0.964       2.540e-01         -0.0354
 324       1.081e+01      -1.286e+01       4.022e-01           0.437           0.177           0.882       9.428e-02          0.1950
Strip 13
 325       1.030e+01      -1.133e+01       3.345e-01          -0.004          -0.036          -0.999       9.527e-02          0.1102
 326       1.018e+01      -1.133e+01       3.481e-01          -0.149          -0.085          -0.985       2.842e-01          0.3167
 327       9.945e+00      -1.133e+01       3.632e-01          -0.011          -0.038          -0.999       4.490e-01          0.4047
 328       9.614e+00      -1.133e+01       3.394e-01           0.133           0.015          -0.991       5.968e-01          0.3699
 329       9.204e+00      -1.133e+01       2.695e-01           0.196           0.039          -0.980       7.143e-01          0.2704
 330       8.737e+00      -1.133e+01       1.812e-01           0.176           0.031          -0.984       7.800e-01          0.1556
 331       8.242e+00      -1.133e+01       1.144e-01           0.091          -0.006          -0.996       7.935e-01          0.1102
 332       7.747e+00      -1.133e+01       8.854e-02           0.011          -0.042          -0.999       7.678e-01          0.1692
 333       7.281e+00      -1.133e+01       9.478e-02          -0.041          -0.067          -0.997       7.015e-01          0.2769
 334       6.871e+00      -1.133e+01       1.221e-01          -0.096          -0.094          -0.991       5.965e-01          0.4178
 335       6.540e+00      -1.133e+01       1.666e-01          -0.179          -0.137          -0.974       4.602e-01          0.6069
 336       6.308e+00      -1.133e+01       2.305e-01          -0.379          -0.239          -0.894       3.127e-01          0.7540
 337       6.189e+00      -1.133e+01       3.219e-01          -0.784          -0.441          -0.438       2.159e-01         -0.3699
 338       6.189e+00      -1.132e+01       4.295e-01          -0.791          -0.415           0.449       2.138e-01         -3.5690
 339       6.308e+00      -1.132e+01       5.207e-01          -0.381          -0.181           0.907       3.093e-01         -4.0257
 340       6.540e+00      -1.132e+01       5.842e-01          -0.179          -0.072           0.981       4.575e-01         -2.2482
 341       6.871e+00      -1.132e+01       6.281e-01          -0.095          -0.028           0.995       5.942e-01         -1.4737
 342       7.281e+00      -1.132e+01       6.556e-01          -0.043          -0.002           0.999       7.000e-01         -1.1081
 343       7.747e+00      -1.132e+01       6.656e-01          -0.001           0.018           1.000       7.668e-01         -0.8910
 344       8.242e+00      -1.132e+01       6.569e-01           0.036           0.035           0.999       7.905e-01         -0.7473
 345       8.737e+00      -1.132e+01       6.265e-01           0.087           0.057           0.995       7.707e-01         -0.6122
 346       9.204e+00      -1.132e+01       5.732e-01           0.142           0.078           0.987       7.083e-01         -0.4409
 347       9.614e+00      -1.132e+01       5.063e-01           0.182           0.094           0.979       6.036e-01         -0.2714
 348       9.945e+00      -1.132e+01       4.401e-01           0.213           0.105           0.971       4.616e-01         -0.1256
 349       1.018e+01      -1.133e+01       3.866e-01           0.241           0.114           0.964       2.904e-01         -0.0344
 350       1.030e+01      -1.133e+01       3.494e-01           0.437           0.177           0.882       1.078e-01          0.1944
Strip 14
 351       9.754e+00      -9.717e+00       2.779e-01          -0.004          -0.036          -0.999       1.076e-01          0.1098
 352       9.625e+00      -9.717e+00       2.926e-01          -0.149          -0.085          -0.985       3.212e-01          0.3165
 353       9.375e+00      -9.717e+00       3.088e-01          -0.011          -0.038          -0.999       5.074e-01          0.4044
 354       9.018e+00      -9.717e+00       2.831e-01           0.133           0.015          -0.991       6.743e-01          0.3690
 355       8.574e+00      -9.718e+00       2.076e-01           0.196           0.039          -0.980       8.070e-01          0.2677
 356       8.070e+00      -9.718e+00       1.122e-01           0.177           0.031          -0.984       8.813e-01          0.1498
 357       7.535e+00      -9.719e+00       3.998e-02           0.091          -0.006          -0.996       8.966e-01          0.1010
 358       7.001e+00      -9.719e+00       1.206e-02           0.011          -0.042          -0.999       8.676e-01          0.1575
 359       6.497e+00      -9.719e+00       1.880e-02          -0.041          -0.067          -0.997       7.927e-01          0.2630
 360       6.053e+00      -9.719e+00       4.832e-02          -0.096          -0.094          -0.991       6.741e-01          0.4018
 361       5.696e+00      -9.719e+00       9.642e-02          -0.179          -0.137          -0.974       5.201e-01          0.5909
 362       5.446e+00      -9.718e+00       1.654e-01          -0.379          -0.239          -0.894       3.535e-01          0.7596
 363       5.317e+00      -9.718e+00       2.642e-01          -0.783          -0.441          -0.438       2.440e-01         -0.2667
 364       5.317e+00      -9.717e+00       3.805e-01          -0.792          -0.416           0.448       2.415e-01         -3.3669
 365       5.446e+00      -9.716e+00       4.790e-01          -0.381          -0.181           0.907       3.494e-01         -3.8690
 366       5.696e+00      -9.716e+00       5.476e-01          -0.179          -0.072           0.981       5.169e-01         -2.1736
 367       6.053e+00      -9.715e+00       5.950e-01          -0.095          -0.028           0.995       6.714e-01         -1.4301
 368       6.497e+00      -9.715e+00       6.248e-01          -0.043          -0.002           0.999       7.909e-01         -1.0786
 369       7.001e+00      -9.715e+00       6.356e-01          -0.001           0.018           1.000       8.665e-01         -0.8699
 370       7.535e+00      -9.715e+00       6.262e-01           0.036           0.035           0.999       8.933e-01         -0.7316
 371       8.070e+00      -9.716e+00       5.933e-01           0.087           0.057           0.995       8.709e-01         -0.6007
 372       8.574e+00      -9.716e+00       5.357e-01           0.142           0.078           0.987       8.004e-01         -0.4329
 373       9.018e+00      -9.716e+00       4.635e-01           0.182           0.094           0.979       6.821e-01         -0.2663
 374       9.375e+00      -9.717e+00       3.919e-01           0.213           0.105           0.971       5.216e-01         -0.1228
 375       9.625e+00      -9.717e+00       3.341e-01           0.241           0.114           0.964       3.282e-01         -0.0332
 376       9.754e+00      -9.717e+00       2.939e-01           0.436           0.177           0.882       1.218e-01          0.1941
Strip 15
 377       9.190e+00      -8.043e+00       2.189e-01          -0.004          -0.036          -0.999       1.203e-01          0.1088
 378       9.052e+00      -8.043e+00       2.347e-01          -0.149          -0.085          -0.985       3.589e-01          0.3161
 379       8.782e+00      -8.043e+00       2.522e-01          -0.011          -0.038          -0.999       5.669e-01          0.4040
 380       8.397e+00      -8.043e+00       2.245e-01           0.133           0.015          -0.991       7.534e-01          0.3678
 381       7.919e+00      -8.043e+00       1.432e-01           0.196           0.039          -0.980       9.017e-01          0.2645
 382       7.376e+00      -8.044e+00       4.028e-02           0.177           0.031          -0.984       9.847e-01          0.1430
 383       6.800e+00      -8.044e+00      -3.749e-02           0.091          -0.006          -0.996       1.002e+00          0.0904
 384       6.223e+00      -8.044e+00      -6.758e-02           0.011          -0.042          -0.999       9.694e-01          0.1440
 385       5.680e+00      -8.044e+00      -6.031e-02          -0.041          -0.067          -0.997       8.858e-01          0.2469
 386       5.202e+00      -8.044e+00      -2.850e-02          -0.096          -0.094          -0.991       7.533e-01          0.3831
 387       4.817e+00      -8.044e+00       2.333e-02          -0.179          -0.137          -0.974       5.813e-01          0.5715
 388       4.548e+00      -8.043e+00       9.770e-02          -0.378          -0.239          -0.894       3.951e-01          0.7627
 389       4.409e+00      -8.043e+00       2.042e-01          -0.783          -0.440          -0.439       2.727e-01         -0.1551
 390       4.409e+00      -8.042e+00       3.294e-01          -0.792          -0.416           0.448       2.698e-01         -3.1409
 391       4.548e+00      -8.042e+00       4.357e-01          -0.381          -0.181           0.907       3.903e-01         -3.6917
 392       4.817e+00      -8.041e+00       5.095e-01          -0.179          -0.072           0.981       5.775e-01         -2.0890
 393       5.202e+00      -8.041e+00       5.606e-01          -0.095          -0.028           0.995       7.501e-01         -1.3805
 394       5.680e+00      -8.041e+00       5.927e-01          -0.043          -0.002           0.999       8.838e-01         -1.0454
 395       6.223e+00      -8.041e+00       6.043e-01          -0.001           0.018           1.000       9.682e-01         -0.8460
 396       6.800e+00      -8.041e+00       5.942e-01           0.036           0.035           0.999       9.982e-01         -0.7140
 397       7.376e+00      -8.041e+00       5.588e-01           0.087           0.057           0.995       9.732e-01         -0.5878
 398       7.919e+00      -8.041e+00       4.967e-01           0.142           0.078           0.987       8.945e-01         -0.4242
 399       8.397e+00      -8.042e+00       4.189e-01           0.182           0.094           0.979       7.623e-01         -0.2608
 400       8.782e+00      -8.042e+00       3.418e-01           0.213           0.105           0.971       5.829e-01         -0.1197
 401       9.052e+00      -8.043e+00       2.795e-01           0.241           0.114           0.964       3.667e-01         -0.0322
 402       9.190e+00      -8.043e+00       2.362e-01           0.436           0.177           0.882       1.362e-01          0.1932
Strip 16
 403       8.608e+00      -6.313e+00       1.579e-01          -0.004          -0.036          -0.999       1.330e-01          0.1074
 404       8.459e+00      -6.313e+00       1.749e-01          -0.149          -0.085          -0.985       3.967e-01          0.3156
 405       8.169e+00      -6.313e+00       1.937e-01          -0.011          -0.038          -0.999       6.266e-01          0.4035
 406       7.755e+00      -6.313e+00       1.640e-01           0.133           0.015          -0.991       8.327e-01          0.3665
 407       7.242e+00      -6.313e+00       7.659e-02           0.196           0.039          -0.980       9.965e-01          0.2608
 408       6.659e+00      -6.314e+00      -3.394e-02           0.177           0.031          -0.984       1.088e+00          0.1353
 409       6.039e+00      -6.314e+00      -1.175e-01           0.091          -0.006          -0.996       1.107e+00          0.0782
 410       5.420e+00      -6.314e+00      -1.498e-01           0.011          -0.042          -0.999       1.071e+00          0.1284
 411       4.837e+00      -6.314e+00      -1.420e-01          -0.041          -0.067          -0.997       9.791e-01          0.2282
 412       4.324e+00      -6.314e+00      -1.078e-01          -0.096          -0.094          -0.991       8.327e-01          0.3611
 413       3.910e+00      -6.314e+00      -5.216e-02          -0.179          -0.137          -0.974       6.425e-01          0.5477
 414       3.620e+00      -6.314e+00       2.775e-02          -0.378          -0.239          -0.894       4.368e-01          0.7621
 415       3.471e+00      -6.313e+00       1.421e-01          -0.783          -0.440          -0.439       3.015e-01         -0.0336
 416       3.471e+00      -6.313e+00       2.767e-01          -0.792          -0.416           0.447       2.981e-01         -2.8847
 417       3.620e+00      -6.312e+00       3.908e-01          -0.381          -0.181           0.907       4.313e-01         -3.4876
 418       3.910e+00      -6.312e+00       4.702e-01          -0.179          -0.072           0.981       6.382e-01         -1.9914
 419       4.324e+00      -6.312e+00       5.251e-01          -0.095          -0.028           0.995       8.291e-01         -1.3236
 420       4.837e+00      -6.312e+00       5.596e-01          -0.043          -0.002           0.999       9.768e-01         -1.0076
 421       5.420e+00      -6.312e+00       5.721e-01          -0.001           0.018           1.000       1.070e+00         -0.8196
 422       6.039e+00      -6.312e+00       5.612e-01           0.036           0.035           0.999       1.103e+00         -0.6950
 423       6.659e+00      -6.312e+00       5.232e-01           0.087           0.057           0.995       1.076e+00         -0.5744
 424       7.242e+00      -6.312e+00       4.565e-01           0.142           0.078           0.987       9.887e-01         -0.4153
 425       7.755e+00      -6.312e+00       3.728e-01           0.182           0.094           0.979       8.426e-01         -0.2553
 426       8.169e+00      -6.313e+00       2.900e-01           0.213           0.105           0.971       6.444e-01         -0.1170
 427       8.459e+00      -6.313e+00       2.230e-01           0.241           0.114           0.964       4.054e-01         -0.0317
 428       8.608e+00      -6.313e+00       1.765e-01           0.436           0.177           0.882       1.505e-01          0.1916
Strip 17
 429       8.011e+00      -4.540e+00       9.547e-02          -0.004          -0.036          -0.999       1.454e-01          0.1055
 430       7.851e+00      -4.540e+00       1.137e-01          -0.149          -0.085          -0.985       4.339e-01          0.3148
 431       7.541e+00      -4.540e+00       1.338e-01          -0.011          -0.038          -0.999       6.853e-01          0.4030
 432       7.098e+00      -4.540e+00       1.020e-01           0.133           0.015          -0.991       9.106e-01          0.3651
 433       6.548e+00      -4.541e+00       8.354e-03           0.196           0.039          -0.980       1.090e+00          0.2568
 434       5.924e+00      -4.541e+00      -1.100e-01           0.177           0.031          -0.984       1.190e+00          0.1266
 435       5.260e+00      -4.541e+00      -1.995e-01           0.091          -0.006          -0.996       1.211e+00          0.0644
 436       4.597e+00      -4.541e+00      -2.341e-01           0.011          -0.042          -0.999       1.172e+00          0.1107
 437       3.973e+00      -4.541e+00      -2.258e-01          -0.041          -0.067          -0.997       1.071e+00          0.2068
 438       3.423e+00      -4.541e+00      -1.892e-01          -0.096          -0.094          -0.991       9.106e-01          0.3352
 439       2.980e+00      -4.541e+00      -1.295e-01          -0.179          -0.137          -0.974       7.028e-01          0.5183
 440       2.669e+00      -4.541e+00      -4.395e-02          -0.378          -0.239          -0.894       4.777e-01          0.7562
 441       2.509e+00      -4.541e+00       7.855e-02          -0.783          -0.440          -0.440       3.298e-01          0.1022
 442       2.509e+00      -4.540e+00       2.227e-01          -0.792          -0.416           0.447       3.260e-01         -2.5834
 443       2.669e+00      -4.540e+00       3.449e-01          -0.381          -0.181           0.907       4.716e-01         -3.2418
 444       2.980e+00      -4.540e+00       4.299e-01          -0.179          -0.072           0.981       6.979e-01         -1.8733
 445       3.423e+00      -4.540e+00       4.887e-01          -0.095          -0.028           0.995       9.066e-01         -1.2557
 446       3.973e+00      -4.539e+00       5.256e-01          -0.043          -0.002           0.999       1.068e+00         -0.9640
 447       4.597e+00      -4.539e+00       5.390e-01          -0.001           0.018           1.000       1.170e+00         -0.7907
 448       5.260e+00      -4.539e+00       5.273e-01           0.036           0.035           0.999       1.207e+00         -0.6757
 449       5.924e+00      -4.540e+00       4.866e-01           0.087           0.057           0.995       1.176e+00         -0.5619
 450       6.548e+00      -4.540e+00       4.152e-01           0.142           0.078           0.987       1.081e+00         -0.4078
 451       7.098e+00      -4.540e+00       3.256e-01           0.182           0.094           0.979       9.215e-01         -0.2513
 452       7.541e+00      -4.540e+00       2.369e-01           0.213           0.105           0.971       7.047e-01         -0.1154
 453       7.851e+00      -4.540e+00       1.652e-01           0.241           0.114           0.964       4.434e-01         -0.0321
 454       8.011e+00      -4.540e+00       1.154e-01           0.436           0.177           0.882       1.646e-01          0.1889
Strip 18
 455       7.404e+00      -2.737e+00       3.191e-02          -0.004          -0.036          -0.999       1.574e-01          0.1027
 456       7.233e+00      -2.737e+00       5.137e-02          -0.149          -0.085          -0.985       4.696e-01          0.3138
 457       6.902e+00      -2.737e+00       7.285e-02          -0.011          -0.038          -0.999       7.416e-01          0.4024
 458       6.429e+00      -2.737e+00       3.886e-02           0.133           0.015          -0.991       9.854e-01          0.3633
 459       5.842e+00      -2.737e+00      -6.107e-02           0.196           0.039          -0.980       1.179e+00          0.2518
 460       5.176e+00      -2.737e+00      -1.874e-01           0.177           0.031          -0.984       1.288e+00          0.1165
 461       4.468e+00      -2.737e+00      -2.830e-01           0.091          -0.006          -0.996       1.310e+00          0.0492
 462       3.760e+00      -2.737e+00      -3.199e-01           0.011          -0.042          -0.999       1.268e+00          0.0918
 463       3.093e+00      -2.737e+00      -3.110e-01          -0.041          -0.067          -0.997       1.159e+00          0.1837
 464       2.506e+00      -2.737e+00      -2.719e-01          -0.096          -0.094          -0.991       9.856e-01          0.3061
 465       2.033e+00      -2.737e+00      -2.082e-01          -0.179          -0.137          -0.974       7.606e-01          0.4825
 466       1.702e+00      -2.737e+00      -1.169e-01          -0.378          -0.239          -0.894       5.171e-01          0.7431
 467       1.531e+00      -2.737e+00       1.385e-02          -0.783          -0.440          -0.440       3.570e-01          0.2650
 468       1.531e+00      -2.737e+00       1.677e-01          -0.792          -0.416           0.446       3.527e-01         -2.1989
 469       1.702e+00      -2.736e+00       2.982e-01          -0.381          -0.181           0.907       5.103e-01         -2.9155
 470       2.033e+00      -2.736e+00       3.889e-01          -0.179          -0.072           0.981       7.552e-01         -1.7143
 471       2.506e+00      -2.736e+00       4.517e-01          -0.095          -0.028           0.995       9.811e-01         -1.1664
 472       3.093e+00      -2.736e+00       4.911e-01          -0.043          -0.002           0.999       1.156e+00         -0.9108
 473       3.760e+00      -2.736e+00       5.053e-01          -0.001           0.018           1.000       1.267e+00         -0.7600
 474       4.468e+00      -2.736e+00       4.929e-01           0.036           0.035           0.999       1.306e+00         -0.6599
 475       5.176e+00      -2.736e+00       4.494e-01           0.087           0.057           0.995       1.273e+00         -0.5559
 476       5.842e+00      -2.736e+00       3.732e-01           0.142           0.078           0.987       1.170e+00         -0.4074
 477       6.429e+00      -2.736e+00       2.776e-01           0.182           0.094           0.979       9.974e-01         -0.2532
 478       6.902e+00      -2.737e+00       1.829e-01           0.213           0.105           0.971       7.627e-01         -0.1182
 479       7.233e+00      -2.737e+00       1.064e-01           0.241           0.114           0.964       4.799e-01         -0.0357
 480       7.404e+00      -2.737e+00       5.316e-02           0.436           0.177           0.882       1.782e-01          0.1841
Strip 19
 481       6.790e+00      -9.143e-01      -3.230e-02          -0.004          -0.036          -0.999       1.685e-01          0.0994
 482       6.609e+00      -9.143e-01      -1.160e-02          -0.149          -0.085          -0.985       5.030e-01          0.3141
 483       6.256e+00      -9.143e-01       1.125e-02          -0.011          -0.038          -0.999       7.944e-01          0.4013
 484       5.753e+00      -9.143e-01      -2.491e-02           0.133           0.015          -0.991       1.055e+00          0.3568
 485       5.129e+00      -9.144e-01      -1.312e-01           0.196           0.039          -0.980       1.263e+00          0.2372
 486       4.420e+00      -9.144e-01      -2.656e-01           0.177           0.031          -0.984       1.379e+00          0.0972
 487       3.667e+00      -9.145e-01      -3.673e-01           0.091          -0.006          -0.996       1.403e+00          0.0332
 488       2.914e+00      -9.145e-01      -4.066e-01           0.011          -0.042          -0.999       1.358e+00          0.0824
 489       2.205e+00      -9.145e-01      -3.971e-01          -0.041          -0.067          -0.997       1.241e+00          0.1770
 490       1.580e+00      -9.145e-01      -3.555e-01          -0.096          -0.094          -0.991       1.056e+00          0.2938
 491       1.077e+00      -9.144e-01      -2.878e-01          -0.179          -0.137          -0.974       8.148e-01          0.4576
 492       7.248e-01      -9.144e-01      -1.906e-01          -0.378          -0.239          -0.894       5.540e-01          0.7241
 493       5.432e-01      -9.143e-01      -5.151e-02          -0.783          -0.440          -0.440       3.825e-01          0.4753
 494       5.432e-01      -9.143e-01       1.122e-01          -0.792          -0.416           0.446       3.777e-01         -1.5916
 495       7.248e-01      -9.142e-01       2.510e-01          -0.381          -0.181           0.907       5.465e-01         -2.3356
 496       1.077e+00      -9.142e-01       3.475e-01          -0.179          -0.072           0.981       8.088e-01         -1.4125
 497       1.580e+00      -9.142e-01       4.143e-01          -0.095          -0.028           0.995       1.051e+00         -1.0104
 498       2.205e+00      -9.141e-01       4.562e-01          -0.043          -0.002           0.999       1.238e+00         -0.8307
 499       2.914e+00      -9.141e-01       4.713e-01          -0.001           0.018           1.000       1.357e+00         -0.7312
 500       3.667e+00      -9.141e-01       4.581e-01           0.036           0.035           0.999       1.399e+00         -0.6618
 501       4.420e+00      -9.142e-01       4.119e-01           0.087           0.057           0.995       1.364e+00         -0.5783
 502       5.129e+00      -9.142e-01       3.308e-01           0.142           0.078           0.987       1.254e+00         -0.4382
 503       5.753e+00      -9.142e-01       2.291e-01           0.182           0.094           0.979       1.068e+00         -0.2812
 504       6.256e+00      -9.143e-01       1.283e-01           0.213           0.105           0.971       8.170e-01         -0.1387
 505       6.609e+00      -9.143e-01       4.689e-02           0.241           0.114           0.964       5.140e-01         -0.0492
 506       6.790e+00      -9.143e-01      -9.699e-03           0.436           0.177           0.882       1.909e-01          0.1720
Strip 20
 507       6.790e+00       9.143e-01      -3.230e-02          -0.004           0.036          -0.999       1.685e-01          0.0994
 508       6.609e+00       9.143e-01      -1.160e-02          -0.149           0.085          -0.985       5.030e-01          0.3141
 509       6.256e+00       9.143e-01       1.125e-02          -0.011           0.038          -0.999       7.944e-01          0.4013
 510       5.753e+00       9.143e-01      -2.491e-02           0.133          -0.015          -0.991       1.055e+00          0.3568
 511       5.129e+00       9.144e-01      -1.312e-01           0.196          -0.039          -0.980       1.263e+00          0.2372
 512       4.420e+00       9.144e-01      -2.656e-01           0.177          -0.031          -0.984       1.379e+00          0.0972
 513       3.667e+00       9.145e-01      -3.673e-01           0.091           0.006          -0.996       1.403e+00          0.0332
 514       2.914e+00       9.145e-01      -4.066e-01           0.011           0.042          -0.999       1.358e+00          0.0824
 515       2.205e+00       9.145e-01      -3.971e-01          -0.041           0.067          -0.997       1.241e+00          0.1770
 516       1.580e+00       9.145e-01      -3.555e-01          -0.096           0.094          -0.991       1.056e+00          0.2938
 517       1.077e+00       9.144e-01      -2.878e-01          -0.179           0.137          -0.974       8.148e-01          0.4576
 518       7.248e-01       9.144e-01      -1.906e-01          -0.378           0.239          -0.894       5.540e-01          0.7241
 519       5.432e-01       9.143e-01      -5.151e-02          -0.783           0.440          -0.440       3.825e-01          0.4753
 520       5.432e-01       9.143e-01       1.122e-01          -0.792           0.416           0.446       3.777e-01         -1.5916
 521       7.248e-01       9.142e-01       2.510e-01          -0.381           0.181           0.907       5.465e-01         -2.3356
 522       1.077e+00       9.142e-01       3.475e-01          -0.179           0.072           0.981       8.088e-01         -1.4125
 523       1.580e+00       9.142e-01       4.143e-01          -0.095           0.028           0.995       1.051e+00         -1.0104
 524       2.205e+00       9.141e-01       4.562e-01          -0.043           0.002           0.999       1.238e+00         -0.8307
 525       2.914e+00       9.141e-01       4.713e-01          -0.001          -0.018           1.000       1.357e+00         -0.7312
 526       3.667e+00       9.141e-01       4.581e-01           0.036          -0.035           0.999       1.399e+00         -0.6618
 527       4.420e+00       9.142e-01       4.119e-01           0.087          -0.057           0.995       1.364e+00         -0.5783
 528       5.129e+00       9.142e-01       3.308e-01           0.142          -0.078           0.987       1.254e+00         -0.4382
 529       5.753e+00       9.142e-01       2.291e-01           0.182          -0.094           0.979       1.068e+00         -0.2812
 530       6.256e+00       9.143e-01       1.283e-01           0.213          -0.105           0.971       8.170e-01         -0.1387
 531       6.609e+00       9.143e-01       4.689e-02           0.241          -0.114           0.964       5.140e-01         -0.0492
 532       6.790e+00       9.143e-01      -9.699e-03           0.436          -0.177           0.882       1.909e-01          0.1720
Strip 21
 533       7.404e+00       2.737e+00       3.191e-02          -0.004           0.036          -0.999       1.574e-01          0.1027
 534       7.233e+00       2.737e+00       5.137e-02          -0.149           0.085          -0.985       4.696e-01          0.3138
 535       6.902e+00       2.737e+00       7.285e-02          -0.011           0.038          -0.999       7.416e-01          0.4024
 536       6.429e+00       2.737e+00       3.886e-02           0.133          -0.015          -0.991       9.854e-01          0.3633
 537       5.842e+00       2.737e+00      -6.107e-02           0.196          -0.039          -0.980       1.179e+00          0.2518
 538       5.176e+00       2.737e+00      -1.874e-01           0.177          -0.031          -0.984       1.288e+00          0.1165
 539       4.468e+00       2.737e+00      -2.830e-01           0.091           0.006          -0.996       1.310e+00          0.0492
 540       3.760e+00       2.737e+00      -3.199e-01           0.011           0.042          -0.999       1.268e+00          0.0918
 541       3.093e+00       2.737e+00      -3.110e-01          -0.041           0.067          -0.997       1.159e+00          0.1837
 542       2.506e+00       2.737e+00      -2.719e-01          -0.096           0.094          -0.991       9.856e-01          0.3061
 543       2.033e+00       2.737e+00      -2.082e-01          -0.179           0.137          -0.974       7.606e-01          0.4825
 544       1.702e+00       2.737e+00      -1.169e-01          -0.378           0.239          -0.894       5.171e-01          0.7431
 545       1.531e+00       2.737e+00       1.385e-02          -0.783           0.440          -0.440       3.570e-01          0.2650
 546       1.531e+00       2.737e+00       1.677e-01          -0.792           0.416           0.446       3.527e-01         -2.1989
 547       1.702e+00       2.736e+00       2.982e-01          -0.381           0.181           0.907       5.103e-01         -2.9155
 548       2.033e+00       2.736e+00       3.889e-01          -0.179           0.072           0.981       7.552e-01         -1.7143
 549       2.506e+00       2.736e+00       4.517e-01          -0.095           0.028           0.995       9.811e-01         -1.1664
 550       3.093e+00       2.736e+00       4.911e-01          -0.043           0.002           0.999       1.156e+00         -0.9108
 551       3.760e+00       2.736e+00       5.053e-01          -0.001          -0.018           1.000       1.267e+00         -0.7600
 552       4.468e+00       2.736e+00       4.929e-01           0.036          -0.035           0.999       1.306e+00         -0.6599
 553       5.176e+00       2.736e+00       4.494e-01           0.087          -0.057           0.995       1.273e+00         -0.5559
 554       5.842e+00       2.736e+00       3.732e-01           0.142          -0.078           0.987       1.170e+00         -0.4074
 555       6.429e+00       2.736e+00       2.776e-01           0.182          -0.094           0.979       9.974e-01         -0.2532
 556       6.902e+00       2.737e+00       1.829e-01           0.213          -0.105           0.971       7.627e-01         -0.1182
 557       7.233e+00       2.737e+00       1.064e-01           0.241          -0.114           0.964       4.799e-01         -0.0357
 558       7.404e+00       2.737e+00       5.316e-02           0.436          -0.177           0.882       1.782e-01          0.1841
Strip 22
 559       8.011e+00       4.540e+00       9.547e-02          -0.004           0.036          -0.999       1.454e-01          0.1055
 560       7.851e+00       4.540e+00       1.137e-01          -0.149           0.085          -0.985       4.339e-01          0.3148
 561       7.541e+00       4.540e+00       1.338e-01          -0.011           0.038          -0.999       6.853e-01          0.4030
 562       7.098e+00       4.540e+00       1.020e-01           0.133          -0.015          -0.991       9.106e-01          0.3651
 563       6.548e+00       4.541e+00       8.354e-03           0.196          -0.039          -0.980       1.090e+00          0.2568
[...]
 853       1.145e+01       1.988e+01       4.988e-01          -0.041           0.067          -0.997       2.051e-01          0.2914
 854       1.122e+01       1.988e+01       5.144e-01          -0.097           0.094          -0.991       1.743e-01          0.4426
 855       1.103e+01       1.988e+01       5.398e-01          -0.180           0.137          -0.974       1.344e-01          0.6351
 856       1.089e+01       1.988e+01       5.764e-01          -0.380           0.240          -0.893       9.118e-02          0.7160
 857       1.083e+01       1.988e+01       6.286e-01          -0.786           0.442          -0.432       6.294e-02         -0.7049
 858       1.083e+01       1.988e+01       6.901e-01          -0.789           0.414           0.454       6.271e-02         -4.1467
 859       1.089e+01       1.987e+01       7.423e-01          -0.379           0.180           0.908       9.072e-02         -4.4425
 860       1.103e+01       1.987e+01       7.786e-01          -0.179           0.071           0.981       1.340e-01         -2.4347
 861       1.122e+01       1.987e+01       8.036e-01          -0.094           0.028           0.995       1.739e-01         -1.5705
 862       1.145e+01       1.987e+01       8.194e-01          -0.043           0.002           0.999       2.048e-01         -1.1618
 863       1.172e+01       1.987e+01       8.251e-01          -0.001          -0.018           1.000       2.243e-01         -0.9193
 864       1.200e+01       1.987e+01       8.201e-01           0.036          -0.035           0.999       2.311e-01         -0.7599
 865       1.228e+01       1.987e+01       8.027e-01           0.087          -0.057           0.995       2.252e-01         -0.6161
 866       1.255e+01       1.987e+01       7.723e-01           0.142          -0.078           0.987       2.069e-01         -0.4411
 867       1.279e+01       1.988e+01       7.341e-01           0.182          -0.094           0.979       1.763e-01         -0.2707
 868       1.297e+01       1.988e+01       6.962e-01           0.213          -0.105           0.971       1.348e-01         -0.1251
 869       1.311e+01       1.988e+01       6.656e-01           0.241          -0.114           0.964       8.481e-02         -0.0354
 870       1.318e+01       1.988e+01       6.443e-01           0.437          -0.178           0.882       3.146e-02          0.1987
Strip 34
 871       1.342e+01       2.061e+01       6.617e-01          -0.004           0.036          -0.999       2.158e-02          0.0895
 872       1.336e+01       2.061e+01       6.690e-01          -0.150           0.085          -0.985       6.431e-02          0.2838
 873       1.323e+01       2.061e+01       6.770e-01          -0.011           0.038          -0.999       1.017e-01          0.3630
 874       1.306e+01       2.061e+01       6.643e-01           0.133          -0.015          -0.991       1.353e-01          0.3240
 875       1.284e+01       2.061e+01       6.270e-01           0.196          -0.039          -0.980       1.620e-01          0.2241
 876       1.259e+01       2.061e+01       5.797e-01           0.176          -0.031          -0.984       1.769e-01          0.1130
 877       1.232e+01       2.062e+01       5.440e-01           0.091           0.006          -0.996       1.799e-01          0.0740
 878       1.206e+01       2.062e+01       5.301e-01           0.011           0.042          -0.999       1.739e-01          0.1416
 879       1.181e+01       2.062e+01       5.335e-01          -0.041           0.067          -0.997       1.588e-01          0.2608
 880       1.159e+01       2.061e+01       5.481e-01          -0.097           0.094          -0.991       1.350e-01          0.4153
 881       1.141e+01       2.061e+01       5.719e-01          -0.180           0.137          -0.974       1.041e-01          0.6136
 882       1.129e+01       2.061e+01       6.061e-01          -0.380           0.240          -0.893       7.059e-02          0.7191
 883       1.122e+01       2.061e+01       6.550e-01          -0.787           0.442          -0.431       4.872e-02         -0.6216
 884       1.122e+01       2.061e+01       7.125e-01          -0.789           0.414           0.455       4.859e-02         -3.9752
 885       1.129e+01       2.061e+01       7.613e-01          -0.379           0.180           0.908       7.029e-02         -4.2995
 886       1.141e+01       2.061e+01       7.953e-01          -0.179           0.071           0.981       1.038e-01         -2.3565
 887       1.159e+01       2.061e+01       8.187e-01          -0.094           0.028           0.995       1.347e-01         -1.5137
 888       1.181e+01       2.061e+01       8.335e-01          -0.043           0.002           0.999       1.586e-01         -1.1132
 889       1.206e+01       2.061e+01       8.388e-01          -0.001          -0.018           1.000       1.737e-01         -0.8753
 890       1.232e+01       2.061e+01       8.341e-01           0.036          -0.035           0.999       1.790e-01         -0.7204
 891       1.259e+01       2.061e+01       8.179e-01           0.087          -0.057           0.995       1.744e-01         -0.5828
 892       1.284e+01       2.061e+01       7.894e-01           0.142          -0.078           0.987       1.603e-01         -0.4166
 893       1.306e+01       2.061e+01       7.536e-01           0.182          -0.094           0.979       1.365e-01         -0.2556
 894       1.323e+01       2.061e+01       7.182e-01           0.213          -0.105           0.971       1.044e-01         -0.1177
 895       1.336e+01       2.061e+01       6.896e-01           0.241          -0.114           0.964       6.567e-02         -0.0345
 896       1.342e+01       2.061e+01       6.697e-01           0.438          -0.178           0.881       2.436e-02          0.1993
Strip 35
 897       1.362e+01       2.121e+01       6.827e-01          -0.004           0.036          -0.999       1.600e-02          0.0635
 898       1.356e+01       2.121e+01       6.895e-01          -0.150           0.085          -0.985       4.767e-02          0.2484
 899       1.344e+01       2.121e+01       6.971e-01          -0.011           0.038          -0.999       7.538e-02          0.3208
 900       1.328e+01       2.121e+01       6.851e-01           0.133          -0.015          -0.991       1.003e-01          0.2787
 901       1.307e+01       2.121e+01       6.498e-01           0.196          -0.039          -0.980       1.201e-01          0.1769
 902       1.283e+01       2.121e+01       6.052e-01           0.176          -0.031          -0.984       1.312e-01          0.0625
 903       1.258e+01       2.121e+01       5.714e-01           0.091           0.006          -0.996       1.334e-01          0.0188
 904       1.233e+01       2.121e+01       5.584e-01           0.011           0.042          -0.999       1.289e-01          0.0833
 905       1.210e+01       2.121e+01       5.615e-01          -0.041           0.067          -0.997       1.177e-01          0.2031
 906       1.189e+01       2.121e+01       5.753e-01          -0.097           0.094          -0.991       1.001e-01          0.3620
 907       1.172e+01       2.121e+01       5.978e-01          -0.180           0.137          -0.974       7.713e-02          0.5700
 908       1.161e+01       2.121e+01       6.301e-01          -0.380           0.240          -0.893       5.231e-02          0.7184
 909       1.155e+01       2.121e+01       6.763e-01          -0.787           0.442          -0.430       3.611e-02         -0.4764
 910       1.155e+01       2.120e+01       7.306e-01          -0.788           0.414           0.456       3.604e-02         -3.6747
 911       1.161e+01       2.120e+01       7.767e-01          -0.379           0.180           0.908       5.214e-02         -4.0488
 912       1.172e+01       2.120e+01       8.088e-01          -0.178           0.071           0.981       7.697e-02         -2.2170
 913       1.189e+01       2.120e+01       8.309e-01          -0.094           0.028           0.995       9.987e-02         -1.4116
 914       1.210e+01       2.120e+01       8.448e-01          -0.043           0.002           0.999       1.176e-01         -1.0262
 915       1.233e+01       2.120e+01       8.499e-01          -0.001          -0.018           1.000       1.288e-01         -0.7987
 916       1.258e+01       2.120e+01       8.455e-01           0.036          -0.035           0.999       1.327e-01         -0.6551
 917       1.283e+01       2.120e+01       8.301e-01           0.087          -0.057           0.995       1.293e-01         -0.5320
 918       1.307e+01       2.120e+01       8.032e-01           0.142          -0.078           0.987       1.188e-01         -0.3833
 919       1.328e+01       2.120e+01       7.694e-01           0.182          -0.094           0.979       1.012e-01         -0.2400
 920       1.344e+01       2.120e+01       7.360e-01           0.213          -0.105           0.971       7.738e-02         -0.1162
 921       1.356e+01       2.120e+01       7.089e-01           0.241          -0.114           0.964       4.868e-02         -0.0439
 922       1.362e+01       2.121e+01       6.902e-01           0.438          -0.178           0.881       1.805e-02          0.1908
Strip 36
 923       1.377e+01       2.165e+01       6.985e-01          -0.004           0.036          -0.999       1.099e-02         -0.0172
 924       1.372e+01       2.165e+01       7.050e-01          -0.150           0.085          -0.985       3.276e-02          0.1492
 925       1.360e+01       2.165e+01       7.123e-01          -0.011           0.038          -0.999       5.181e-02          0.2128
 926       1.344e+01       2.165e+01       7.008e-01           0.133          -0.015          -0.991       6.895e-02          0.1755
 927       1.325e+01       2.166e+01       6.671e-01           0.196          -0.039          -0.980       8.257e-02          0.0847
 928       1.302e+01       2.166e+01       6.244e-01           0.176          -0.031          -0.984       9.016e-02         -0.0208
 929       1.278e+01       2.166e+01       5.922e-01           0.091           0.006          -0.996       9.165e-02         -0.0650
 930       1.254e+01       2.166e+01       5.797e-01           0.011           0.042          -0.999       8.861e-02         -0.0094
 931       1.232e+01       2.166e+01       5.827e-01          -0.041           0.067          -0.997       8.091e-02          0.1005
 932       1.212e+01       2.166e+01       5.959e-01          -0.097           0.095          -0.991       6.876e-02          0.2572
 933       1.196e+01       2.166e+01       6.174e-01          -0.180           0.137          -0.974       5.300e-02          0.4775
 934       1.185e+01       2.166e+01       6.482e-01          -0.380           0.240          -0.893       3.593e-02          0.6901
 935       1.179e+01       2.165e+01       6.924e-01          -0.787           0.442          -0.430       2.480e-02         -0.2770
 936       1.179e+01       2.165e+01       7.443e-01          -0.788           0.413           0.457       2.478e-02         -3.2264
 937       1.185e+01       2.165e+01       7.883e-01          -0.379           0.180           0.908       3.584e-02         -3.6636
 938       1.196e+01       2.165e+01       8.190e-01          -0.178           0.071           0.981       5.290e-02         -1.9938
 939       1.212e+01       2.165e+01       8.401e-01          -0.094           0.028           0.995       6.864e-02         -1.2466
 940       1.232e+01       2.165e+01       8.534e-01          -0.043           0.002           0.999       8.081e-02         -0.8907
 941       1.254e+01       2.165e+01       8.582e-01          -0.001          -0.018           1.000       8.849e-02         -0.6912
 942       1.278e+01       2.165e+01       8.541e-01           0.036          -0.035           0.999       9.119e-02         -0.5784
 943       1.302e+01       2.165e+01       8.394e-01           0.087          -0.057           0.995       8.886e-02         -0.4877
 944       1.325e+01       2.165e+01       8.137e-01           0.142          -0.078           0.987       8.163e-02         -0.3719
 945       1.344e+01       2.165e+01       7.814e-01           0.182          -0.094           0.979       6.954e-02         -0.2614
 946       1.360e+01       2.165e+01       7.494e-01           0.213          -0.105           0.971       5.317e-02         -0.1645
 947       1.372e+01       2.165e+01       7.236e-01           0.241          -0.114           0.964       3.345e-02         -0.1112
 948       1.377e+01       2.165e+01       7.056e-01           0.438          -0.178           0.881       1.240e-02          0.1296
Strip 37
 949       1.387e+01       2.196e+01       7.091e-01          -0.004           0.036          -0.999       6.419e-03         -0.4193
 950       1.382e+01       2.196e+01       7.154e-01          -0.150           0.085          -0.985       1.913e-02         -0.3054
 951       1.371e+01       2.196e+01       7.225e-01          -0.011           0.038          -0.999       3.025e-02         -0.2163
 952       1.356e+01       2.196e+01       7.113e-01           0.133          -0.015          -0.991       4.026e-02         -0.1499
 953       1.336e+01       2.196e+01       6.787e-01           0.196          -0.039          -0.980       4.822e-02         -0.1282
 954       1.315e+01       2.196e+01       6.374e-01           0.176          -0.031          -0.984       5.265e-02         -0.1585
 955       1.291e+01       2.196e+01       6.061e-01           0.091           0.006          -0.996       5.352e-02         -0.1726
 956       1.268e+01       2.196e+01       5.940e-01           0.011           0.042          -0.999       5.174e-02         -0.1237
 957       1.246e+01       2.196e+01       5.970e-01          -0.041           0.067          -0.997       4.725e-02         -0.0430
 958       1.227e+01       2.196e+01       6.097e-01          -0.097           0.095          -0.991       4.015e-02          0.0755
 959       1.212e+01       2.196e+01       6.306e-01          -0.180           0.137          -0.974       3.094e-02          0.2735
 960       1.201e+01       2.196e+01       6.604e-01          -0.380           0.240          -0.893       2.098e-02          0.5434
 961       1.195e+01       2.196e+01       7.032e-01          -0.787           0.442          -0.429       1.448e-02         -0.1053
 962       1.195e+01       2.195e+01       7.535e-01          -0.788           0.413           0.457       1.447e-02         -2.6285
 963       1.201e+01       2.195e+01       7.961e-01          -0.379           0.180           0.908       2.094e-02         -3.1041
 964       1.212e+01       2.195e+01       8.258e-01          -0.178           0.071           0.981       3.090e-02         -1.6517
 965       1.227e+01       2.195e+01       8.463e-01          -0.094           0.028           0.995       4.009e-02         -1.0099
 966       1.246e+01       2.195e+01       8.592e-01          -0.043           0.002           0.999       4.719e-02         -0.7331
 967       1.268e+01       2.195e+01       8.639e-01          -0.001          -0.018           1.000       5.167e-02         -0.6006
 968       1.291e+01       2.195e+01       8.598e-01           0.036          -0.035           0.999       5.325e-02         -0.5445
 969       1.315e+01       2.195e+01       8.456e-01           0.087          -0.057           0.995       5.189e-02         -0.5186
 970       1.336e+01       2.195e+01       8.207e-01           0.142          -0.078           0.987       4.766e-02         -0.4959
 971       1.356e+01       2.195e+01       7.894e-01           0.182          -0.094           0.979       4.061e-02         -0.5084
 972       1.371e+01       2.195e+01       7.584e-01           0.213          -0.105           0.971       3.105e-02         -0.5325
 973       1.382e+01       2.195e+01       7.334e-01           0.241          -0.114           0.964       1.953e-02         -0.5479
 974       1.387e+01       2.196e+01       7.160e-01           0.438          -0.178           0.881       7.241e-03         -0.2931
Strip 38
 975       1.393e+01       2.211e+01       7.144e-01          -0.004           0.036          -0.999       2.110e-03         -0.9156
 976       1.387e+01       2.211e+01       7.207e-01          -0.150           0.085          -0.985       6.287e-03         -0.8969
 977       1.376e+01       2.211e+01       7.276e-01          -0.011           0.038          -0.999       9.944e-03         -0.8041
 978       1.361e+01       2.211e+01       7.166e-01           0.133          -0.015          -0.991       1.324e-02         -0.6078
 979       1.342e+01       2.211e+01       6.845e-01           0.196          -0.039          -0.980       1.585e-02         -0.4204
 980       1.321e+01       2.211e+01       6.438e-01           0.176          -0.031          -0.984       1.731e-02         -0.3127
 981       1.298e+01       2.211e+01       6.131e-01           0.091           0.006          -0.996       1.759e-02         -0.2520
 982       1.275e+01       2.211e+01       6.012e-01           0.011           0.042          -0.999       1.701e-02         -0.1919
 983       1.254e+01       2.211e+01       6.041e-01          -0.041           0.067          -0.997       1.553e-02         -0.1296
 984       1.235e+01       2.211e+01       6.167e-01          -0.097           0.095          -0.991       1.320e-02         -0.0462
 985       1.220e+01       2.211e+01       6.371e-01          -0.180           0.137          -0.974       1.017e-02          0.1089
 986       1.209e+01       2.211e+01       6.665e-01          -0.380           0.240          -0.893       6.895e-03          0.3819
 987       1.203e+01       2.211e+01       7.086e-01          -0.788           0.442          -0.429       4.759e-03          0.0846
 988       1.203e+01       2.211e+01       7.581e-01          -0.788           0.413           0.457       4.758e-03         -1.8864
 989       1.209e+01       2.210e+01       8.000e-01          -0.379           0.180           0.908       6.883e-03         -2.3937
 990       1.220e+01       2.210e+01       8.292e-01          -0.178           0.071           0.981       1.016e-02         -1.2591
 991       1.235e+01       2.210e+01       8.494e-01          -0.094           0.028           0.995       1.318e-02         -0.7962
 992       1.254e+01       2.210e+01       8.621e-01          -0.043           0.002           0.999       1.551e-02         -0.6240
 993       1.275e+01       2.210e+01       8.667e-01          -0.001          -0.018           1.000       1.698e-02         -0.5429
 994       1.298e+01       2.210e+01       8.627e-01           0.036          -0.035           0.999       1.750e-02         -0.5088
 995       1.321e+01       2.210e+01       8.487e-01           0.087          -0.057           0.995       1.705e-02         -0.5025
 996       1.342e+01       2.210e+01       8.242e-01           0.142          -0.078           0.987       1.567e-02         -0.5395
 997       1.361e+01       2.210e+01       7.934e-01           0.182          -0.094           0.979       1.335e-02         -0.6843
 998       1.376e+01       2.211e+01       7.630e-01           0.213          -0.105           0.971       1.020e-02         -0.9042
 999       1.387e+01       2.211e+01       7.383e-01           0.241          -0.114           0.964       6.419e-03         -1.0416
1000       1.393e+01       2.211e+01       7.212e-01           0.438          -0.178           0.881       2.380e-03         -0.8087










